Version 4
SHEET 1 1844 680
WIRE 96 -144 0 -144
WIRE 224 -144 224 -240
WIRE 224 -144 176 -144
WIRE 256 -144 224 -144
WIRE 448 -144 256 -144
WIRE 720 -144 528 -144
WIRE 0 -96 0 -144
WIRE 0 -96 -48 -96
WIRE 256 -80 256 -144
WIRE 720 -32 720 -144
WIRE 0 0 0 -96
WIRE 672 32 640 32
WIRE 256 112 256 0
WIRE 256 112 224 112
WIRE 224 160 224 112
WIRE 320 160 224 160
WIRE 464 160 400 160
WIRE 528 160 464 160
WIRE 624 160 592 160
WIRE 640 160 640 32
WIRE 640 160 624 160
WIRE 624 208 624 160
WIRE 640 208 624 208
WIRE 224 224 224 160
WIRE 464 224 464 160
WIRE 0 336 0 80
WIRE 224 336 224 288
WIRE 224 336 0 336
WIRE 464 336 464 288
WIRE 464 336 224 336
WIRE 528 336 464 336
WIRE 720 336 720 32
WIRE 720 336 528 336
WIRE 528 384 528 336
FLAG 528 384 0
FLAG -48 -96 in
IOPIN -48 -96 In
FLAG 640 208 A
IOPIN 640 208 BiDir
FLAG 224 -240 out
IOPIN 224 -240 Out
SYMBOL voltage 0 -16 R0
WINDOW 123 0 0 Left 0
WINDOW 39 0 0 Left 0
SYMATTR InstName V1
SYMATTR Value SINE(0 100 100)
SYMBOL Misc\\TRIAC 688 -32 R0
SYMATTR InstName T1
SYMATTR Value BTA12-600B
SYMBOL res 544 -160 R90
WINDOW 0 0 56 VBottom 2
WINDOW 3 32 56 VTop 2
SYMATTR InstName pot
SYMATTR Value 1.3k
SYMBOL res 272 16 R180
WINDOW 0 36 76 Left 2
WINDOW 3 36 40 Left 2
SYMATTR InstName R2
SYMATTR Value 1k
SYMBOL res 304 176 R270
WINDOW 0 32 56 VTop 2
WINDOW 3 0 56 VBottom 2
SYMATTR InstName R3
SYMATTR Value 500
SYMBOL cap 208 224 R0
SYMATTR InstName C1
SYMATTR Value 0.1µ
SYMBOL cap 448 224 R0
SYMATTR InstName C2
SYMATTR Value 0.1µ
SYMBOL Misc\\DIAC 592 128 R90
WINDOW 0 0 32 VBottom 2
WINDOW 3 64 32 VTop 2
SYMATTR InstName D1
SYMATTR Value DB3
SYMBOL res 192 -160 R90
WINDOW 0 0 56 VBottom 2
WINDOW 3 32 56 VTop 2
SYMATTR InstName RL
SYMATTR Value 1k
TEXT 504 440 Left 2 !.inc C:\\Users\\HP\\Desktop\\Sem6\\EDL\\st_diacs_pspice\\st_diacs.lib
TEXT 504 480 Left 2 !.inc C:\\Users\\HP\\Desktop\\Sem6\\EDL\\st_standard_snubberless_triacs_pspice\\st_standard_snubberless_triacs.lib
TEXT -128 504 Left 2 !.tran 20ms
TEXT 512 536 Left 2 !.meas tran energy INTEG ((V(out) - V(in)) * I(RL))
